*Heading
 E2_211_300x300_00_AllEdges_ins_Aligned
** Job name: E2_211 Model name: Model-1
** Generated by: Abaqus/CAE 2017
*Preprint, echo=NO, model=NO, history=NO, contact=NO
**
** PARTS
**
*Part, name=Part-1
*Node
      1,  -5.47667694,   1.12071931,        0.147
      2,  -4.82962894,  -1.29409528,        0.147
      3,  -2.41481447, -0.647047639,        0.147
      4,  -3.06186223,   1.76776695,        0.147
      5,  -1.76776695,  -3.06186223,        0.147
      6,  0.647047639,  -2.41481447,        0.147
      7,           0.,           0.,        0.147
      8, -0.647047639,   2.41481447,        0.147
      9,  -3.70890975,   4.18258142,        0.147
     10,  -1.29409528,   4.82962894,        0.147
     11,  -6.12372446,   3.53553391,        0.147
     12,  -7.89149141,  0.473671734,        0.147
     13,  -7.24444389,   -1.9411428,        0.147
     14,   -6.5973959,  -4.35595751,        0.147
     15,  -4.18258142,  -3.70890975,        0.147
     16,  -1.12071931,  -5.47667694,        0.147
     17,   1.29409528,  -4.82962894,        0.147
     18,   3.06186223,  -1.76776695,        0.147
     19,   2.41481447,  0.647047639,        0.147
     20,   1.76776695,   3.06186223,        0.147
** ... 9868 like lines cut
*Element, type=DC3D8E
   1,    4,    3,    2,    1, 4948, 4947, 4946, 4945
   2,    7,    6,    5,    3, 4951, 4950, 4949, 4947
   3,    8,    7,    3,    4, 4952, 4951, 4947, 4948
   4,   10,    8,    4,    9, 4954, 4952, 4948, 4953
   5,    9,    4,    1,   11, 4953, 4948, 4945, 4955
   6,    1,    2,   13,   12, 4945, 4946, 4957, 4956
   7,    2,   15,   14,   13, 4946, 4959, 4958, 4957
   8,    3,    5,   15,    2, 4947, 4949, 4959, 4946
   9,    6,   17,   16,    5, 4950, 4961, 4960, 4949
  10,   19,   18,    6,    7, 4963, 4962, 4950, 4951
  11,   20,   19,    7,    8, 4964, 4963, 4951, 4952
  12,   21,   20,    8,   10, 4965, 4964, 4952, 4954
  13,   23,   21,   10,   22, 4967, 4965, 4954, 4966
  14,   22,   10,    9,   24, 4966, 4954, 4953, 4968
  15,   24,    9,   11,   25, 4968, 4953, 4955, 4969
  16,   25,   11,   27,   26, 4969, 4955, 4971, 4970
  17,   11,    1,   12,   27, 4955, 4945, 4956, 4971
  18,   12,   13,   29,   28, 4956, 4957, 4973, 4972
  19,   13,   14,   30,   29, 4957, 4958, 4974, 4973
  20,   14,   32,   31,   30, 4958, 4976, 4975, 4974
** ... 4759 like lines cut
*Element, type=DC3D6E
4780, 4286, 4287, 4542, 9230, 9231, 9486
4781, 4289, 4290, 4544, 9233, 9234, 9488
4782, 4293, 4294, 4547, 9237, 9238, 9491
4783, 4297, 4298, 4550, 9241, 9242, 9494
4784, 4300, 4301, 4552, 9244, 9245, 9496
4785, 4304, 4305, 4555, 9248, 9249, 9499
4786, 4308, 4309, 4558, 9252, 9253, 9502
4787, 4312, 4313, 4561, 9256, 9257, 9505
4788, 4316, 4317, 4564, 9260, 9261, 9508
4789, 4323, 4324, 4570, 9267, 9268, 9514
4790, 4331, 4332, 4577, 9275, 9276, 9521
4791, 4335, 4336, 4580, 9279, 9280, 9524
4792, 4339, 4340, 4583, 9283, 9284, 9527
4793, 4342, 4343, 4585, 9286, 9287, 9529
4794, 4346, 4347, 4588, 9290, 9291, 9532
4795, 4721, 4476, 4722, 9665, 9420, 9666
4796, 4479, 4480, 4725, 9423, 9424, 9669
4797, 4482, 4483, 4727, 9426, 9427, 9671
4798, 4486, 4487, 4730, 9430, 9431, 9674
4799, 4490, 4491, 4733, 9434, 9435, 9677
** ... 40 like lines cut
*Nset, nset=bnset
 4286, 4289, 4293, 4297, 4300, 4304, 4308, 4312, 4316, 4323, 4331, 4335, 4339, 4342, 4346, 4479
 4482, 4486, 4490, 4494, 4497, 4501, 4505, 4512, 4521, 4524, 4529, 4531, 4535, 4540, 4541, 4542
 4543, 4544, 4545, 4546, 4547, 4548, 4549, 4550, 4551, 4552, 4553, 4554, 4555, 4556, 4557, 4558
 4559, 4560, 4561, 4562, 4563, 4564, 4565, 4566, 4567, 4568, 4569, 4570, 4571, 4572, 4573, 4574
 4575, 4576, 4577, 4578, 4579, 4580, 4581, 4582, 4583, 4584, 4585, 4586, 4587, 4588, 4589, 4590
 4592, 4596, 4599, 4604, 4608, 4610, 4614, 4619, 4623, 4630, 4638, 4641, 4645, 4649, 4653, 4721
 4722, 4723, 4724, 4725, 4726, 4727, 4728, 4729, 4730, 4731, 4732, 4733, 4734, 4735, 4736, 4737
 4738, 4739, 4740, 4741, 4742, 4743, 4744, 4745, 4746, 4747, 4748, 4749, 4750, 4751, 4752, 4753
 4754, 4755, 4756, 4757, 4758, 4759, 4760, 4761, 4762, 4763, 4764, 4765, 4766, 4767, 4768, 4769
 4770, 4771, 4772, 4773, 4774, 4775, 4776, 4777, 4778, 4779, 4780, 4781, 4782, 4783, 4784, 4785
 4786, 4787, 4788, 4789, 4790, 4791, 4792, 4793, 4794, 4795, 4796, 4797, 4798, 4799, 4800, 4801
 4802, 4803, 4804, 4805, 4806, 4807, 4808, 4809, 4810, 4811, 4812, 4813, 4814, 4815, 4816, 4817
 4818, 4819, 4820, 4821, 4822, 4823, 4824, 4827, 4830, 4833, 4838, 4842, 4846, 4849, 4853, 4857
 4864, 4871, 4874, 4879, 4883, 4886, 4891, 4892, 4893, 4894, 4895, 4896, 4897, 4898, 4899, 4900
 4901, 4902, 4903, 4904, 4905, 4906, 4907, 4908, 4909, 4910, 4911, 4912, 4913, 4914, 4915, 4916
 4917, 4918, 4919, 4920, 4921, 4922, 4923, 4924, 4925, 4926, 4927, 4928, 4929, 4930, 4931, 4932
 4933, 4934, 4935, 4936, 4937, 4938, 4939, 4940, 4941, 4942, 4943, 4944, 9230, 9233, 9237, 9241
 9244, 9248, 9252, 9256, 9260, 9267, 9275, 9279, 9283, 9286, 9290, 9423, 9426, 9430, 9434, 9438
 9441, 9445, 9449, 9456, 9465, 9468, 9473, 9475, 9479, 9484, 9485, 9486, 9487, 9488, 9489, 9490
 9491, 9492, 9493, 9494, 9495, 9496, 9497, 9498, 9499, 9500, 9501, 9502, 9503, 9504, 9505, 9506
** ... 14 like lines cut
*Elset, elset=eset, generate
    1,  4839,     1
*Nset, nset=nset, generate
    1,  9888,     1
*Elset, elset=_lset_S1, internal
  1,  2,  3,  4,  5,  8,  9, 10, 11, 12, 22, 25, 26, 27, 28, 49
*Surface, type=ELEMENT, name=lset
_lset_S1, S1
*Orientation, name=Ori-1
1., 0., 0., 0., 1., 0.
3, 0.
** Section: Section-1
*Solid Section, elset=eset, orientation=Ori-1, material=Material-CI
,
*End Part
**  
**
** ASSEMBLY
**
*Assembly, name=Assembly
**  
*Instance, name=Part-1-1, part=Part-1
*End Instance
**  
*End Assembly
*Amplitude, name=Amp-1
             0.,              0.,           5e-07,           4000.,         4.5e-06,          36000.,           5e-06,          40000.
       2.05e-05,          20000.,         3.6e-05,              0.
** 
** MATERIALS
** 
*Material, name=Material-CI
*Conductivity, dependencies=1, type=ORTHO
     0.008,   0.00067,   0.00067,       25.,        1.
  0.002608,   0.00018,   0.00018,      500.,        1.
  0.001736,    0.0001,    0.0001,     1000.,        1.
  0.001736,    0.0001,    0.0001,     3316.,        1.
  0.001736,    0.0001,    0.0001,     3334.,        1.
    0.0005,    0.0005,    0.0005,     3335.,        1.
  0.001015,  0.001015,  0.001015,     7000.,        1.
 3.351e-05, 3.351e-05, 3.351e-05,       25.,        2.
 0.0001003, 0.0001003, 0.0001003,      500.,        2.
 0.0001707, 0.0001707, 0.0001707,     1000.,        2.
    0.0005,    0.0005,    0.0005,     3316.,        2.
    0.0005,    0.0005,    0.0005,     3334.,        2.
    0.0005,    0.0005,    0.0005,     3335.,        2.
  0.001015,  0.001015,  0.001015,     7000.,        2.
*Density
 1.52e-06,  25.
 1.52e-06, 500.
  1.1e-06, 800.
  1.1e-06,3316.
 1.11e-09,3334.
 1.11e-09,3335.
*Depvar
      3,
*Electrical Conductivity, dependencies=1, type=ORTHO
 35.97, 0.001145, 1.79e-06,      25.,       1.
 35.97, 0.001145, 1.79e-06,     500.,       1.
 35.97, 0.001145, 1.79e-06,     800.,       1.
 35.97, 0.001145, 1.79e-06,    3316.,       1.
    1.,       1.,    1e+06,    3334.,       1.
    1.,       1.,    1e+06,    3335.,       1.
    1.,       1.,    1e+06,      25.,       2.
    1.,       1.,    1e+06,     334.,       2.
    1.,       1.,    1e+06,     600.,       2.
    1.,       1.,    1e+06,    3316.,       2.
*Heat Generation
*Joule Heat Fraction
        0.92,
*Latent Heat
 4.8e+06, 500., 800.
 4.3e+07,3316.,3334.
*Specific Heat, dependencies=1
1065.,  25.,   1.
2100., 500.,   1.
2100., 800.,   1.
1700., 810.,   1.
2500.,3316.,   1.
5875.,3334.,   1.
5875.,3335.,   1.
5875.,  25.,   2.
5875., 343.,   2.
5875., 500.,   2.
5875., 510.,   2.
5875.,3316.,   2.
5874.,3334.,   2.
5875.,3335.,   2.
*User Defined Field
** 
** PREDEFINED FIELDS
** 
** Name: Predefined Field-1   Type: Temperature
*Initial Conditions, type=TEMPERATURE
Part-1-1.nset, 25.
** ----------------------------------------------------------------
** 
** STEP: Step-1
** 
*Step, name=Step-1, nlgeom=NO, inc=10000000, unsymm=NO
instant_loading
*Coupled Thermal-electrical, end=PERIOD, deltmx=400.
1e-10, 2e-08, 3.5e-30, 2e-08, 
*Solution Technique, type=SEPARATED
** 
** BOUNDARY CONDITIONS
** 
** Name: BC-1 Type: Electric potential
*Boundary
Part-1-1.bnset, 9, 9
** 
** LOADS
** 
** Name: Load-1   Type: Surface current Using Field: AnalyticalField-1
*Decurrent
Part-1-1.1,CS1, 0.0127324
Part-1-1.2,CS1, 0.0127324
Part-1-1.3,CS1, 0.0127324
Part-1-1.4,CS1, 0.0127324
Part-1-1.5,CS1, 0.
Part-1-1.8,CS1, 0.0127324
Part-1-1.9,CS1, 0.0127324
Part-1-1.10,CS1, 0.0127324
Part-1-1.11,CS1, 0.0127324
Part-1-1.12,CS1, 0.0127324
Part-1-1.22,CS1, 0.
Part-1-1.25,CS1, 0.0127324
Part-1-1.26,CS1, 0.0127324
Part-1-1.27,CS1, 0.0127324
Part-1-1.28,CS1, 0.
Part-1-1.49,CS1, 0.
** 
** CONTROLS
** 
*Controls, reset
*Controls, parameters=time incrementation
, , , , , , , 30, , , 
*Controls, parameters=field, field=temperature
0.8, 0.8, , , 0.8, , , 
*Controls, parameters=field, field=electrical potential
0.8, 0.8, , , 0.8, , , 
** 
** OUTPUT REQUESTS
** 
*Restart, write, frequency=0
** 
** FIELD OUTPUT: F-Output-1
** 
*Output, field
*Node Output
EPOT, NT, RECUR, RFL
*Element Output, directions=YES
ECD, EPG, HFL, NCURS
*Contact Output
ECD, 
*Output, history, frequency=0
*End Step
